Circuit: * Z:\home\mariano\Escritorio\Enlace hacia Docencia\TC2\simulaciones \LTspice\GIC bilineal notch 50Hz.asc

Ignoring empty pin current: Ix(u1:1)
Ignoring empty pin current: Ix(u1:2)
Ignoring empty pin current: Ix(u2:1)
Ignoring empty pin current: Ix(u2:2)

Date: Mon May 30 16:07:14 2022
Total elapsed time: 0.075 seconds.

tnom = 27
temp = 27
method = trap
totiter = 0
traniter = 0
tranpoints = 0
accept = 0
rejected = 0
matrix size = 7
fillins = 6
solver = Normal

