Circuit: * Z:\home\mariano\Escritorio\Enlace hacia Docencia\TC2\simulaciones \LTspice\notch 50hz.asc


Date: Mon May 30 15:19:50 2022
Total elapsed time: 0.083 seconds.

tnom = 27
temp = 27
method = trap
totiter = 0
traniter = 0
tranpoints = 0
accept = 0
rejected = 0
matrix size = 4
fillins = 0
solver = Normal

