Circuit: * C:\users\mariano\Escritorio\Enlace hacia Docencia\TC2\simulaciones \LTspice\SOS rlc LP sensibilidad.asc

.step l=0.95 r=0.95
.step l=0.96 r=0.95
.step l=0.97 r=0.95
.step l=0.98 r=0.95
.step l=0.99 r=0.95
.step l=1 r=0.95
.step l=1.01 r=0.95
.step l=1.02 r=0.95
.step l=1.03 r=0.95
.step l=1.04 r=0.95
.step l=1.05 r=0.95
.step l=0.95 r=0.96
.step l=0.96 r=0.96
.step l=0.97 r=0.96
.step l=0.98 r=0.96
.step l=0.99 r=0.96
.step l=1 r=0.96
.step l=1.01 r=0.96
.step l=1.02 r=0.96
.step l=1.03 r=0.96
.step l=1.04 r=0.96
.step l=1.05 r=0.96
.step l=0.95 r=0.97
.step l=0.96 r=0.97
.step l=0.97 r=0.97
.step l=0.98 r=0.97
.step l=0.99 r=0.97
.step l=1 r=0.97
.step l=1.01 r=0.97
.step l=1.02 r=0.97
.step l=1.03 r=0.97
.step l=1.04 r=0.97
.step l=1.05 r=0.97
.step l=0.95 r=0.98
.step l=0.96 r=0.98
.step l=0.97 r=0.98
.step l=0.98 r=0.98
.step l=0.99 r=0.98
.step l=1 r=0.98
.step l=1.01 r=0.98
.step l=1.02 r=0.98
.step l=1.03 r=0.98
.step l=1.04 r=0.98
.step l=1.05 r=0.98
.step l=0.95 r=0.99
.step l=0.96 r=0.99
.step l=0.97 r=0.99
.step l=0.98 r=0.99
.step l=0.99 r=0.99
.step l=1 r=0.99
.step l=1.01 r=0.99
.step l=1.02 r=0.99
.step l=1.03 r=0.99
.step l=1.04 r=0.99
.step l=1.05 r=0.99
.step l=0.95 r=1
.step l=0.96 r=1
.step l=0.97 r=1
.step l=0.98 r=1
.step l=0.99 r=1
.step l=1 r=1
.step l=1.01 r=1
.step l=1.02 r=1
.step l=1.03 r=1
.step l=1.04 r=1
.step l=1.05 r=1
.step l=0.95 r=1.01
.step l=0.96 r=1.01
.step l=0.97 r=1.01
.step l=0.98 r=1.01
.step l=0.99 r=1.01
.step l=1 r=1.01
.step l=1.01 r=1.01
.step l=1.02 r=1.01
.step l=1.03 r=1.01
.step l=1.04 r=1.01
.step l=1.05 r=1.01
.step l=0.95 r=1.02
.step l=0.96 r=1.02
.step l=0.97 r=1.02
.step l=0.98 r=1.02
.step l=0.99 r=1.02
.step l=1 r=1.02
.step l=1.01 r=1.02
.step l=1.02 r=1.02
.step l=1.03 r=1.02
.step l=1.04 r=1.02
.step l=1.05 r=1.02
.step l=0.95 r=1.03
.step l=0.96 r=1.03
.step l=0.97 r=1.03
.step l=0.98 r=1.03
.step l=0.99 r=1.03
.step l=1 r=1.03
.step l=1.01 r=1.03
.step l=1.02 r=1.03
.step l=1.03 r=1.03
.step l=1.04 r=1.03
.step l=1.05 r=1.03
.step l=0.95 r=1.04
.step l=0.96 r=1.04
.step l=0.97 r=1.04
.step l=0.98 r=1.04
.step l=0.99 r=1.04
.step l=1 r=1.04
.step l=1.01 r=1.04
.step l=1.02 r=1.04
.step l=1.03 r=1.04
.step l=1.04 r=1.04
.step l=1.05 r=1.04
.step l=0.95 r=1.05
.step l=0.96 r=1.05
.step l=0.97 r=1.05
.step l=0.98 r=1.05
.step l=0.99 r=1.05
.step l=1 r=1.05
.step l=1.01 r=1.05
.step l=1.02 r=1.05
.step l=1.03 r=1.05
.step l=1.04 r=1.05
.step l=1.05 r=1.05

Date: Fri Apr 29 10:04:42 2022
Total elapsed time: 1.915 seconds.

tnom = 27
temp = 27
method = trap
totiter = 0
traniter = 0
tranpoints = 0
accept = 0
rejected = 0
matrix size = 4
fillins = 1
solver = Normal

