Circuit: * C:\users\mariano\Escritorio\Enlace hacia Docencia\TC2\scripts\analog filters\python\spice\spar chen PAF cheby Ej 4.13 fig 4.26.asc


Date: Tue Oct 18 15:33:35 2022
Total elapsed time: 0.073 seconds.

tnom = 27
temp = 27
method = trap
totiter = 0
traniter = 0
tranpoints = 0
accept = 0
rejected = 0
matrix size = 3
fillins = 0
solver = Normal

