Circuit: * C:\users\mariano\Escritorio\Enlace hacia Docencia\TC2\scripts\analog filters\python\jupytest\spar broadband fig 9.25.asc


Date: Wed Oct 12 16:30:09 2022
Total elapsed time: 0.080 seconds.

tnom = 27
temp = 27
method = trap
totiter = 0
traniter = 0
tranpoints = 0
accept = 0
rejected = 0
matrix size = 7
fillins = 0
solver = Normal

