Circuit: * C:\users\mariano\Escritorio\Enlace hacia Docencia\TC2\scripts\analog filters\python\spice\spar chen PAF butter 5 Ej 4.12 fig 4.22.asc


Date: Tue Oct 18 15:51:04 2022
Total elapsed time: 0.084 seconds.

tnom = 27
temp = 27
method = trap
totiter = 0
traniter = 0
tranpoints = 0
accept = 0
rejected = 0
matrix size = 4
fillins = 0
solver = Normal

