Circuit: * C:\users\mariano\Escritorio\Enlace hacia Docencia\TC2\scripts\analog filters\python\spice\spar chen PAF cheby 4 Ej 4.13 fig 4.26 c-trafo.asc

.OP point found by inspection.

Date: Tue Oct 18 15:32:44 2022
Total elapsed time: 0.108 seconds.

tnom = 27
temp = 27
method = trap
totiter = 0
traniter = 0
tranpoints = 0
accept = 0
rejected = 0
matrix size = 5
fillins = 1
solver = Normal

