Circuit: * C:\users\mariano\Escritorio\Enlace hacia Docencia\TC2\simulaciones \LTspice\tp2 rlc.asc


Date: Mon Apr 04 11:24:17 2022
Total elapsed time: 0.062 seconds.

tnom = 27
temp = 27
method = trap
totiter = 0
traniter = 0
tranpoints = 0
accept = 0
rejected = 0
matrix size = 4
fillins = 1
solver = Normal

