Circuit: * C:\users\mariano\Escritorio\Enlace hacia Docencia\TC2\simulaciones \LTspice\trafo_z_par.asc


Date: Fri Jul 02 23:13:52 2021
Total elapsed time: 0.044 seconds.

tnom = 27
temp = 27
method = trap
totiter = 0
traniter = 0
tranpoints = 0
accept = 0
rejected = 0
matrix size = 12
fillins = 5
solver = Normal

