Circuit: * C:\users\mariano\Escritorio\Enlace hacia Docencia\TC2\scripts\analog filters\python\jupytest\trafo ideal.asc


Date: Fri Oct 14 16:56:39 2022
Total elapsed time: 0.030 seconds.

tnom = 27
temp = 27
method = trap
totiter = 0
traniter = 0
tranpoints = 0
accept = 0
rejected = 0
matrix size = 4
fillins = 0
solver = Normal

