Circuit: * C:\users\mariano\Escritorio\Enlace hacia Docencia\TC2\simulaciones \LTspice\TS13ej2.asc


Date: Mon Oct 04 18:15:59 2021
Total elapsed time: 0.043 seconds.

tnom = 27
temp = 27
method = trap
totiter = 0
traniter = 0
tranpoints = 0
accept = 0
rejected = 0
matrix size = 2
fillins = 0
solver = Normal

