Circuit: * C:\users\mariano\Escritorio\Enlace hacia Docencia\TC2\scripts\analog filters\python\spice\ts15 cheby 4 1db ripple.asc


Date: Fri Nov 04 13:42:14 2022
Total elapsed time: 0.072 seconds.

tnom = 27
temp = 27
method = trap
totiter = 0
traniter = 0
tranpoints = 0
accept = 0
rejected = 0
matrix size = 3
fillins = 0
solver = Normal

